##CIF_1.1

data_sm_global
#Used dictionaries
loop_
_audit_conform_dict_name
_audit_conform_dict_version
_audit_conform_dict_location
cif_core.dic 	2.4.2 	.
cif_pd.dic 		1.0.1 	.
cif_sm.dic 		0.1 	'redaktion.landolt-boernstein(at)springer.com'

#About this content and reference
_sm_credits_copyright
;PAULING FILE Multinaries Edition - 2012. SpringerMaterials Release 2014.
http://www.paulingfile.com
Unique LPF ID Number SD1253432
Project Coordinator: Shuichi Iwata
Section-Editors: Karin Cenzual (Crystal Structures), Hiroaki Okamoto (Phase 
Diagrams), Fritz Hulliger (Physical Properties)
(c) Springer & Material Phases Data System (MPDS), Switzerland & National 
Institute for Materials Science (NIMS), Japan 2014.
(Data generated pre-2002: (c) Springer & MPDS & NIMS; 
post-2001: (c) Springer & MPDS)
All Rights Reserved. Version 2014.06.
;

_audit_creation_method
;This data have been compiled from the crystallographic datasheet for 
"K4MgCl6 Crystal Structure" 
taken from SpringerMaterials (sm_isp_sd_1253432).
;

_publ_section_references
;Seifert H.J., Fink H.: <i>Die Struktur des RbMgC<sub>3</sub> und die kristallchemischen Beziehungen zwischen Doppelchloriden des Magnesium und Mangan</i>. Revue de Chimie Minerale <b>12</b> (1975) 466-475 (in German).
;

#Phase classification
_sm_phase_labels				'K4MgCl6'
_chemical_name_mineral			''
_sm_chemical_compound_class		'chloride'
_sm_phase_prototype				'K4 CdCl6 '
_sm_pearson_symbol				'hR66'
_symmetry_Int_Tables_number		167
_sm_sample_details
;powder (determination of cell parameters)
;
_sm_measurement_details
;automatic diffractometer (determination of cell parameters), 
X-rays (determination of cell parameters)
;
_sm_interpretation_details
;cell parameters determined and structure type assigned
;

data_sm_isp_SD1253432-standardized_unitcell
#Cell Parameters
_cell_length_a					11.98
_cell_length_b					11.98
_cell_length_c					14.486
_cell_angle_alpha				90
_cell_angle_beta				90
_cell_angle_gamma				120
_sm_length_ratio_ab				1.000
_sm_length_ratio_bc				0.827
_sm_length_ratio_ca				1.209
_cell_volume 					1800.5
_symmetry_space_group_name_H-M	'R-3c'
_symmetry_Int_Tables_number		167
_cell_formula_units_Z			6
_sm_cell_transformation
;No transformation from published to standardized cell parameters necessary.
;

#Atom Coordinates
loop_
_atom_site_label
_atom_site_type_symbol
_atom_site_Wyckoff_symbol
_sm_site_symmetry
_atom_site_fract_x
_atom_site_fract_y
_atom_site_fract_z
_atom_site_occupancy
_sm_coordination_number
_sm_atomic_environment_type
Cl1 'Cl' .36f .1 0.1911 0.03154 0.10229 1 ? '?'
K1 'K' .18e ..2 0.37572 0 0.25 1 ? '?'
Mg1 'Mg' .6b .-3. 0 0 0 1 ? '?'
K2 'K' .6a .32 0 0 0.25 1 ? '?'

_sm_atom_site_transformation
;No transformation from published to standardized cell parameters necessary.
Atom coordinates assigned by editor.
;

data_sm_isp_SD1253432-published_cell
#Cell Parameters
_cell_length_a					11.98
_cell_length_b					11.98
_cell_length_c					14.486
_cell_angle_alpha				90
_cell_angle_beta				90
_cell_angle_gamma				120
_sm_length_ratio_ab				1.000
_sm_length_ratio_bc				0.827
_sm_length_ratio_ca				1.209
_cell_volume 					1800.5
_symmetry_space_group_name_H-M	'R-3c'
_symmetry_Int_Tables_number		167
_cell_formula_units_Z			6

#Atom Coordinates
loop_
_atom_site_label
_atom_site_type_symbol
_atom_site_Wyckoff_symbol
_sm_site_symmetry
_atom_site_fract_x
_atom_site_fract_y
_atom_site_fract_z
_atom_site_occupancy
_sm_coordination_number
_sm_atomic_environment_type
? ? ? ? ? ? ? ? ? ?

data_sm_isp_SD1253432-niggli_reduced_cell
#Cell Parameters
_cell_length_a					8.4354
_cell_length_b					8.4354
_cell_length_c					8.4354
_cell_angle_alpha				90.486
_cell_angle_beta				90.486
_cell_angle_gamma				90.486
_sm_length_ratio_ab				1.000
_sm_length_ratio_bc				1.000
_sm_length_ratio_ca				1.000
_cell_volume 					600.16
_symmetry_space_group_name_H-M	''
_symmetry_Int_Tables_number		?
_cell_formula_units_Z			6

#Atom Coordinates
loop_
_atom_site_label
_atom_site_type_symbol
_atom_site_Wyckoff_symbol
_sm_site_symmetry
_atom_site_fract_x
_atom_site_fract_y
_atom_site_fract_z
_atom_site_occupancy
_sm_coordination_number
_sm_atomic_environment_type
? ? ? ? ? ? ? ? ? ?

